*Heading
** Job name: Design_Job0 Model name: Model-1
** Generated by: Abaqus/CAE 2017
*Preprint, echo=NO, model=NO, history=NO, contact=NO
**
** PARTS
**
*Part, name=Part-1
*Node
      1,          40.,          20.
      2,          40.,           0.
      3,         100.,           0.
      4,         100.,          20.
      5,          40.,          40.
      6,         100.,          40.
      7,          40.,         100.
      8,           0.,         100.
      9,           0.,           0.
     10,          40.,          19.
     11,          40.,          18.
     12,          40.,          17.
     13,          40.,          16.
     14,          40.,          15.
     15,          40.,          14.
     16,          40.,          13.
     17,          40.,          12.
     18,          40.,          11.
     19,          40.,          10.
     20,          40.,           9.
** ... 6581 like lines cut
*Element, type=CPS4R
   1,    1,   10,  499,  165
   2,   10,   11,  500,  499
   3,   11,   12,  501,  500
   4,   12,   13,  502,  501
   5,   13,   14,  503,  502
   6,   14,   15,  504,  503
   7,   15,   16,  505,  504
   8,   16,   17,  506,  505
   9,   17,   18,  507,  506
  10,   18,   19,  508,  507
  11,   19,   20,  509,  508
  12,   20,   21,  510,  509
  13,   21,   22,  511,  510
  14,   22,   23,  512,  511
  15,   23,   24,  513,  512
  16,   24,   25,  514,  513
  17,   25,   26,  515,  514
  18,   26,   27,  516,  515
  19,   27,   28,  517,  516
  20,   28,    2,   29,  517
** ... 6380 like lines cut
*Elset, elset=ss, generate
    1,  6400,     1
** Section: sldSec
*Solid Section, elset=ss, material=Material01
,
*End Part
**  
**
** ASSEMBLY
**
*Assembly, name=Assembly
**  
*Instance, name=Part-1-1, part=Part-1
*End Instance
**  
*Nset, nset=_PickedSet4, internal, instance=Part-1-1
   7,   8, 263, 264, 265, 266, 267, 268, 269, 270, 271, 272, 273, 274, 275, 276
 277, 278, 279, 280, 281, 282, 283, 284, 285, 286, 287, 288, 289, 290, 291, 292
 293, 294, 295, 296, 297, 298, 299, 300, 301
*Elset, elset=_PickedSet4, internal, instance=Part-1-1, generate
 2401,  2440,     1
*Nset, nset=_PickedSet5, internal, instance=Part-1-1
 4,
*End Assembly
** 
** MATERIALS
** 
*Material, name=Material01
*Elastic
1., 0.3
*Material, name=Material02
*Elastic
 1e-09, 0.3
** 
** BOUNDARY CONDITIONS
** 
** Name: BC-1 Type: Displacement/Rotation
*Boundary
_PickedSet4, 1, 1
_PickedSet4, 2, 2
** ----------------------------------------------------------------
** 
** STEP: Step-1
** 
*Step, name=Step-1, nlgeom=NO
*Static
1., 1., 1e-05, 1.
** 
** LOADS
** 
** Name: Load-1   Type: Concentrated force
*Cload
_PickedSet5, 2, -1.
** 
** OUTPUT REQUESTS
** 
*Restart, write, frequency=0
** 
** FIELD OUTPUT: SEDensity
** 
*Output, field
*Element Output, directions=YES
ELEDEN, 
** 
** FIELD OUTPUT: F-Output-1
** 
*Output, field, variable=PRESELECT
** 
** HISTORY OUTPUT: ExtWork
** 
*Output, history
*Energy Output
ALLWK, 
** 
** HISTORY OUTPUT: H-Output-1
** 
*Output, history, variable=PRESELECT
*End Step
